/*--------------------------------*- C++ -*----------------------------------*\
  =========                 |				
  \\      /  F ield         | OpenFOAM: The Open Source CFD Toolbox
   \\    /   O peration     | Website:  https://openfoam.org
    \\  /    A nd           | Version:  10                                  	
     \\/     M anipulation  |
\*---------------------------------------------------------------------------*/
FoamFile
{
    format      ascii;
    class       dictionary;
    object      blockMeshDict;
}
// * * * * * * * * * * * * * * * * * * * * * * * * * * * * * * * * * * * * * //

convertToMeters 1;

xmin  0;
xmax  8;
ymin  0;
ymax  0.1;
zmin  0;
zmax  0.1;

//xcells 22;
//ycells 4;
//zcells 4;

deltax 0.1;	//0.05
deltay 0.1;	//0.05
deltaz 0.1;	//0.05

lx #calc "($xmax) - ($xmin)";
ly #calc "($ymax) - ($ymin)";
lz #calc "($zmax) - ($zmin)";

xcells #calc "round($lx / $deltax)";
ycells #calc "round($ly / $deltay)";
zcells #calc "round($lz / $deltaz)";

vertices
(
    ($xmin  $ymin  $zmin)
    ($xmax  $ymin  $zmin)
    ($xmax  $ymax  $zmin)
    ($xmin  $ymax  $zmin)
    ($xmin  $ymin  $zmax)
    ($xmax  $ymin  $zmax)
    ($xmax  $ymax  $zmax)
    ($xmin  $ymax  $zmax)
);

blocks
(
    //hex (0 1 2 3 4 5 6 7) ($xcells $ycells $zcells) simpleGrading (1 1 1)

    //hex (0 1 2 3 4 5 6 7) (100 10 1) simpleGrading (1 1 1)
    hex (0 1 2 3 4 5 6 7) (100 30 1) simpleGrading (1 0.1 1)	//*
    //hex (0 1 2 3 4 5 6 7) (200 60 1) simpleGrading (1 0.05 1)

    //hex (0 1 2 3 4 5 6 7) (100 100 1) simpleGrading (1 0.1 1)
);

edges
(
);

boundary
(
    top
    {
        type wall;
        faces
        (
            (3 7 6 2)
        );
    }
    inlet
    {
        type patch;
        faces
        (
            (0 4 7 3)
        );
    }
    outlet
    {
        type patch;
        faces
        (
            (2 6 5 1)
        );
    }
    bottom
    {
        type symmetry;
        faces
        (
            (0 1 5 4)
        );
    }
    front
    {
        type empty;
        faces
        (
            (4 5 6 7)
        );
    }
    back
    {
        type empty;
        faces
        (
            (0 3 2 1)
        );
    }
);

mergePatchPairs 
(
);

// ************************************************************************* //
