/*--------------------------------*- C++ -*----------------------------------*\
| =========                 |                                                 |
| \\      /  F ield         | OpenFOAM: The Open Source CFD Toolbox           |
|  \\    /   O peration     | Website:  https://openfoam.org                 |
|    \\/     A nd           | Version:  10                                   |
|     \\/     Manipulation  |                                                 |
\*---------------------------------------------------------------------------*/
FoamFile
{
    format      ascii;
    class       dictionary;
    object      transportProperties;
}
// Keep this file for compatibility with simpleFoam in OpenFOAM 2206.

viscosityModel  constant;

nu              nu [0 2 -1 0 0 0 0] 2e-05;

// ************************************************************************* //