/*--------------------------------*- C++ -*----------------------------------*\
| =========                 |                                                 |
| \\      /  F ield         | OpenFOAM: The Open Source CFD Toolbox           |
|  \\    /   O peration     | Website:  https://openfoam.org                 |
|    \\/     A nd           | Version:  10                                   |
|     \\/     Manipulation  |                                                 |
\*---------------------------------------------------------------------------*/
FoamFile
{
    format      ascii;
    class       dictionary;
    object      turbulenceProperties;
}

// Keep this legacy file because simpleFoam in OpenFOAM 2206 still looks for it.
simulationType RAS;

RAS
{
    RASModel        kOmegaSST;
    turbulence      on;
    printCoeffs     on;
}

// ************************************************************************* //