/*--------------------------------*- C++ -*----------------------------------*\
  =========                 |				
  \\      /  F ield         | OpenFOAM: The Open Source CFD Toolbox
   \\    /   O peration     | Website:  https://openfoam.org
    \\  /    A nd           | Version:  10                                  	
     \\/     M anipulation  |
\*---------------------------------------------------------------------------*/
FoamFile
{
    format      ascii;
    class       dictionary;
    object      controlDict;
}
// * * * * * * * * * * * * * * * * * * * * * * * * * * * * * * * * * * * * * //

application     foamRun;

solver          incompressibleFluid;

startFrom       latestTime;//startTime;

startTime       0;

stopAt          endTime;

endTime         1;

deltaT          1e-05;

writeControl    adjustableRunTime;//runTime;

writeInterval   0.01;

purgeWrite      0;

writeFormat     ascii;

writePrecision  8;

writeCompression off;

timeFormat      general;

timePrecision   6;

runTimeModifiable true;

adjustTimeStep  yes;

maxCo           0.4;

// ************************************************************************* //

functions
{

///////////////////////////////////////////////////////////////////////////

    probes
    {
        type            probes;
        libs ("libsampling.so");
        enabled         true;
        writeControl   timeStep;
        writeInterval  1;

	timeStart       0.001;
	//timeEnd       10;

        fields
        (
            p
        );

        probeLocations
        (
            ( 0.0254 0.0253 0 )
            ( 0.0508 0.0253 0 )
            ( 0.0762 0.0253 0 )
            ( 0.1016 0.0253 0 )
            ( 0.127 0.0253 0 )
            ( 0.1524 0.0253 0 )
            ( 0.1778 0.0253 0 )
        );

    }

///////////////////////////////////////////////////////////////////////////

///////////////////////////////////////////////////////////////////////////

    fieldAverage1
    {
        type            fieldAverage;
        libs ("libfieldFunctionObjects.so");
        enabled         true;
        writeControl   outputTime;


        fields
        (
            U
            {
                mean        on;
                prime2Mean  on;
                base        time;
            }

            p
            {
                mean        on;
                prime2Mean  on;
                base        time;
            }
        );
    }

///////////////////////////////////////////////////////////////////////////

///////////////////////////////////////////////////////////////////////////

    surfaceSampling
    {
        // Sample near-wall velocity

        type surfaces;

        // Where to load it from (if not already in solver)
        libs ("libsampling.so");
        enabled         true;
        writeControl   outputTime;

        interpolationScheme cellPoint;

        surfaceFormat vtk;

        // Fields to be sampled
        fields
        (
            U
        );

        surfaces
        (
            nearWall
            {
                type            patchInternalField;
                patches         ( lowerWall );
                distance        1E-6;
                interpolate     true;
                triangulate     false;
            }
        );
    }

///////////////////////////////////////////////////////////////////////////



///////////////////////////////////////////////////////////////////////////

minmaxdomain_scalar
{
    type            volFieldValue;
    libs            ("libfieldFunctionObjects.so");

    enabled 	    true; 	//true or false
    log             true;	//write to screen
    
    //writeControl    writeTime;
    writeControl    timeStep;
    writeInterval   1;

    writeFields     false;	//write solution to field value - Not needed when only reporting value to screen

    writeLocation   true;	//write location in the output file

    //mode component;

    select      all;

    operation       none;

    fields
    (
        p 
        nut
    );
}

minmaxdomain_vector
{
    type            volFieldValue;
    libs            ("libfieldFunctionObjects.so");

    enabled 	    true; 	//true or false
    log             true;	//write to screen
    
    //writeControl    writeTime;
    writeControl    timeStep;
    writeInterval   1;

    writeFields     false;	//write solution to field value - Not needed when only reporting value to screen

    writeLocation   true;	//write location in the output file

    //mode component;

    select      all;

    operation       none;

    fields
    (
        U
    );
}

mindomain_scalar
{
    $minmaxdomain_scalar
    operation       min;
}

mindomain_vector
{
    $minmaxdomain_vector
    operation       minMag;
}

maxdomain_scalar
{
    $minmaxdomain_scalar
    operation       max;
}

maxdomain_vector
{
    $minmaxdomain_vector
    operation       maxMag;
}
///////////////////////////////////////////////////////////////////////////

///////////////////////////////////////////////////////////////////////////
//Saves yplus field at the given interval

    yplus_field
    {
        type yPlus;
        libs ("libutilityFunctionObjects.so");

        enabled true;
        //log false;

        writeControl outputTime;
    }

///////////////////////////////////////////////////////////////////////////

///////////////////////////////////////////////////////////////////////////
//Print y+ stats every iteration without saving the field

    yplus_stats
    {
        type yPlus;
        libs ("libutilityFunctionObjects.so");

        enabled true;

        writeControl timeStep;
        writeInterval 1;

//Leave object empty to not save the field
//This will only print the yplus values every timestep and will not save the field
        objects ();
        log true;
    }

///////////////////////////////////////////////////////////////////////////

}

// ************************************************************************* //
