/*--------------------------------*- C++ -*----------------------------------*\
  =========                 |				
  \\      /  F ield         | OpenFOAM: The Open Source CFD Toolbox
   \\    /   O peration     | Website:  https://openfoam.org
    \\  /    A nd           | Version:  10                                  	
     \\/     M anipulation  |
\*---------------------------------------------------------------------------*/
FoamFile
{
    format      ascii;
    class       dictionary;
    object      momentumTransport;
}
// * * * * * * * * * * * * * * * * * * * * * * * * * * * * * * * * * * * * * //

simulationType RAS;

RAS
{
    RASModel        LienCubicKE;			

/*
    Lien cubic non-linear low-Reynolds k-epsilon turbulence models for
    incompressible flows.

    This turbulence model is described in:
 
        Lien, F.S., Chen, W.L. & Leschziner, M.A. (1996).
        Low-Reynolds-number eddy-viscosity modeling based on non-linear
        stress-strain/vorticity relations.
        Engineering Turbulence Modelling and Experiments 3, 91-100.
*/

    turbulence      on;

    printCoeffs     on;
}

// ************************************************************************* //
