/*--------------------------------*- C++ -*----------------------------------*\
  =========                 |
  \\     /  F ield         | OpenFOAM: The Open Source CFD Toolbox
   \\   /   O peration     | Website:  https://www.openfoam.com
    \\ /    A nd           | Version:  2206
     \\/    M anipulation  |
\*---------------------------------------------------------------------------*/
FoamFile
{
    version     2.0;
    format      ascii;
    class       dictionary;
    location    "constant";
    object      turbulenceProperties;
}
// * * * * * * * * * * * * * * * * * * * * * * * * * * * * * * * * * * * * * //

simulationType  RAS;

RAS
{
    RASModel        kEpsilon;
    turbulence      on;
    printCoeffs     on;
}

// ************************************************************************* //
