/*--------------------------------*- C++ -*----------------------------------*\
  =========                 |
  \\     /  F ield         | OpenFOAM: The Open Source CFD Toolbox
   \\   /   O peration     | Website:  https://www.openfoam.com
    \\ /    A nd           | Version:  2206
     \\/    M anipulation  |
\*---------------------------------------------------------------------------*/
FoamFile
{
    format      ascii;
    class       dictionary;
    object      sampleDict;
}
// * * * * * * * * * * * * * * * * * * * * * * * * * * * * * * * * * * * * * //

type sets;
libs ("libsampling.so");

interpolationScheme cellPoint;

setFormat       raw;

// Campos a serem extraidos
fields
(
    U
    p
    wallShearStress
);

sets
(
    profile0
    {
        type    lineCell;
        axis    distance;
        start   ( 7.996 0 0.1 );
        end     ( 7.996 0.1 0.1 );
    }
);

// ************************************************************************* //