/*--------------------------------*- C++ -*----------------------------------*\
  =========                 |
  \\     /  F ield         | OpenFOAM: The Open Source CFD Toolbox
   \\   /   O peration     | Website:  https://www.openfoam.com
    \\ /    A nd           | Version:  2206
     \\/    M anipulation  |
\*---------------------------------------------------------------------------*/
FoamFile
{
    version     2.0;
    format      ascii;
    class       dictionary;
    location    "constant";
    object      transportProperties;
}
// * * * * * * * * * * * * * * * * * * * * * * * * * * * * * * * * * * * * * //

transportModel  Newtonian;

// Viscosidade cinematica do ar/fluido (Ajuste caso o seu GT1 exija outro valor)
nu              [0 2 -1 0 0 0 0] 1e-05;

// ************************************************************************* //