/*--------------------------------*- C++ -*----------------------------------*\
  =========                 |				
  \\      /  F ield         | OpenFOAM: The Open Source CFD Toolbox
   \\    /   O peration     | Website:  https://openfoam.org
    \\  /    A nd           | Version:  10                                  	
     \\/     M anipulation  |
\*---------------------------------------------------------------------------*/
FoamFile
{
    format      ascii;
    class       dictionary;
    object      momentumTransport;
}
// * * * * * * * * * * * * * * * * * * * * * * * * * * * * * * * * * * * * * //

simulationType  LES;

LES
{
    LESModel        SpalartAllmarasDDES;
    //LESModel        SpalartAllmarasDES;
    LESModel        SpalartAllmarasIDDES;

    turbulence		on;
    printCoeffs		on;

    //delta           cubeRootVol;
    delta           IDDESDelta;

    cubeRootVolCoeffs
    {
        deltaCoeff      1;
    }

}

// ************************************************************************* //
