/*--------------------------------*- C++ -*----------------------------------*\
  =========                 |				
  \\      /  F ield         | OpenFOAM: The Open Source CFD Toolbox
   \\    /   O peration     | Website:  https://openfoam.org
    \\  /    A nd           | Version:  10                                  	
     \\/     M anipulation  |
\*---------------------------------------------------------------------------*/
FoamFile
{
    format      ascii;
    class       dictionary;
    object      controlDict;
}
// * * * * * * * * * * * * * * * * * * * * * * * * * * * * * * * * * * * * * //

libs
(

);

application     pimpleFoam;

solver          incompressibleFluid;

//startFrom       startTime;
startFrom       latestTime;

startTime       0;

stopAt          endTime;

endTime         10;	//10 - 20(D)

deltaT          1e-4;

writeControl    runTime;
writeControl    adjustableRunTime;

//writeInterval   100;
writeInterval   1;

purgeWrite      0;
//purgeWrite      10;

writeFormat     binary;	//ascii-binary

writePrecision  8;

writeCompression off;

timeFormat      general;

timePrecision   6;

runTimeModifiable true;

adjustTimeStep  yes;

maxCo           1;	//1(D) - 2 - 3 - 4 - 5

maxDeltaT       0.01;	//0.001 - 0.005 - 0.01(D)

// ************************************************************************* //

functions
{

///////////////////////////////////////////////////////////////////////////

minmaxdomain_scalar
{
    type            volFieldValue;
    libs            ("libfieldFunctionObjects.so");

    enabled 	    true; 	//true or false
    log             true;	//write to screen
    
    //writeControl    writeTime;
    writeControl    timeStep;
    writeInterval   1;

    writeFields     false;	//write solution to field value - Not needed when only reporting value to screen

    writeLocation   true;	//write location in the output file

    //mode component;

    select      all;

    operation       none;

    fields
    (
        p 
        //k 
        nut
    );
}

minmaxdomain_vector
{
    type            volFieldValue;
    libs            ("libfieldFunctionObjects.so");

    enabled 	    true; 	//true or false
    log             true;	//write to screen
    
    //writeControl    writeTime;
    writeControl    timeStep;
    writeInterval   1;

    writeFields     false;	//write solution to field value - Not needed when only reporting value to screen

    writeLocation   true;	//write location in the output file

    //mode component;

    select      all;

    operation       none;

    fields
    (
        U
    );
}

mindomain_scalar
{
    $minmaxdomain_scalar
    operation       min;
}

mindomain_vector
{
    $minmaxdomain_vector
    operation       min;
}

maxdomain_scalar
{
    $minmaxdomain_scalar
    operation       max;
}

maxdomain_vector
{
    $minmaxdomain_vector
    operation       max;
}

///////////////////////////////////////////////////////////////////////////
/*///////////////////////////////////////////////////////////////////////////
//Saves yplus field at the given interval

    yplus_field
    {
        type yPlus;
        libs ("libutilityFunctionObjects.so");

        enabled true;
        //log false;

        writeControl outputTime;
    }

///////////////////////////////////////////////////////////////////////////

///////////////////////////////////////////////////////////////////////////
//Print y+ stats every iteration without saving the field

    yplus_stats
    {
        type yPlus;
        libs ("libutilityFunctionObjects.so");

        enabled true;

        writeControl timeStep;
        writeInterval 1;

//Leave object empty to not save the field
//This will only print the yplus values every timestep and will not save the field
        objects ();
        log true;
    }

///////////////////////////////////////////////////////////////////////////

///////////////////////////////////////////////////////////////////////////*/

wallShearStress1
{
    type                wallShearStress;
    functionObjectLibs  ("libutilityFunctionObjects.so");

    enabled true;

    writeControl outputTime;
    //writeControl timeStep;
    //writeInterval 1;

    //log true;
}

///////////////////////////////////////////////////////////////////////////

///////////////////////////////////////////////////////////////////////////

    fieldAverage
    {
        type            fieldAverage;
        functionObjectLibs ("libfieldFunctionObjects.so");
        enabled         true;
        writeControl   outputTime;

	//writeControl   timeStep;
	//writeInterval  100;

	//cleanRestart true;

	timeStart       1;
	//timeEnd         200;

        fields
        (
            U
            {
                mean        on;
                prime2Mean  on;
                base        time;
            }

            p
            {
                mean        on;
                prime2Mean  on;
                base        time;
            }

            wallShearStress
            {
                mean        on;
                prime2Mean  on;
                base        time;
            }

            nut
            {
                mean        on;
                prime2Mean  on;
                base        time;
            }

        );
    }

///////////////////////////////////////////////////////////////////////////

}

// ************************************************************************* //
