/*--------------------------------*- C++ -*----------------------------------*\
  =========                 |				
  \\      /  F ield         | OpenFOAM: The Open Source CFD Toolbox
   \\    /   O peration     | Website:  https://openfoam.org
    \\  /    A nd           | Version:  10                                  	
     \\/     M anipulation  |
\*---------------------------------------------------------------------------*/
FoamFile
{
    format      binary;
    class       dictionary;
    object      fvSchemes;
}
// * * * * * * * * * * * * * * * * * * * * * * * * * * * * * * * * * * * * * //

ddtSchemes
{
    default         steadyState;
}

gradSchemes
{
    //default         Gauss linear;
    //default         cellLimited Gauss linear 1;
    //default         cellLimited Gauss pointLinear 1;
    default         cellLimited leastSquares 1;

    //grad(U)         Gauss linear;
    //grad(p)         Gauss linear;
    //grad(p)         Gauss pointLinear;
    grad(p)         leastSquares;
}

divSchemes
{
    default         none;

    limitedGauss    cellLimited Gauss linear 1;

    div(phi,U)      bounded Gauss linearUpwindV limitedGauss;
    //div(phi,U)      bounded Gauss upwind;

    div(phi,k)      bounded Gauss linearUpwind default;
    div(phi,omega)  bounded Gauss linearUpwind default;
    //div(phi,k)        bounded Gauss limitedLinear 1;
    //div(phi,omega)    bounded Gauss limitedLinear 1;
    //div(phi,k)        bounded Gauss upwind;
    //div(phi,omega)    bounded Gauss upwind;

    div(phi,gammaInt)   bounded Gauss linearUpwind default;
    div(phi,ReThetat)   bounded Gauss linearUpwind default;
    //div(phi,gammaInt)     bounded Gauss limitedLinear 1;
    //div(phi,ReThetat)     bounded Gauss limitedLinear 1;
    //div(phi,gammaInt)     bounded Gauss upwind;
    //div(phi,ReThetat)     bounded Gauss upwind;

    div((nuEff*dev2(T(grad(U))))) Gauss linear;
}

laplacianSchemes
{
    default 	   Gauss linear limited 1;
}

interpolationSchemes
{
    default         linear;
}

snGradSchemes
{
    default         limited 1;
}

//yes
wallDist
{
    method         meshWave;
}

// ************************************************************************* //
