/*--------------------------------*- C++ -*----------------------------------*\
| =========                 |                                                 |
| \\      /  F ield         | OpenFOAM: The Open Source CFD Toolbox           |
|  \\    /   O peration     | Version:  2206                                  |
|   \\  /    A nd           | Website:  www.openfoam.com                      |
|    \\/     M anipulation  |                                                 |
\*---------------------------------------------------------------------------*/
FoamFile
{
    version     2.0;
    format      binary;
    arch        "LSB;label=32;scalar=64";
    class       polyBoundaryMesh;
    location    "constant/polyMesh";
    object      boundary;
}
// * * * * * * * * * * * * * * * * * * * * * * * * * * * * * * * * * * * * * //

6
(
    top
    {
        type            wall;
        inGroups        1(wall);
        nFaces          100;
        startFace       5870;
    }
    inlet
    {
        type            patch;
        nFaces          30;
        startFace       5970;
    }
    outlet
    {
        type            patch;
        nFaces          30;
        startFace       6000;
    }
    bottom
    {
        type            symmetry;
        inGroups        1(symmetry);
        nFaces          100;
        startFace       6030;
    }
    front
    {
        type            empty;
        inGroups        1(empty);
        nFaces          3000;
        startFace       6130;
    }
    back
    {
        type            empty;
        inGroups        1(empty);
        nFaces          3000;
        startFace       9130;
    }
)

// ************************************************************************* //
