/*--------------------------------*- C++ -*----------------------------------*\
  =========                 |				
  \\      /  F ield         | OpenFOAM: The Open Source CFD Toolbox
   \\    /   O peration     | Website:  https://openfoam.org
    \\  /    A nd           | Version:  10                                  	
     \\/     M anipulation  |
\*---------------------------------------------------------------------------*/
FoamFile
{
    format      ascii;
    class       dictionary;
    object      controlDict;
}
// * * * * * * * * * * * * * * * * * * * * * * * * * * * * * * * * * * * * * //

libs
(

);

application     foamRun;

solver          incompressibleFluid;

startFrom       latestTime;

startTime       0;

stopAt          endTime;

endTime         1000;	//20000

deltaT          1;

writeControl    timeStep;

writeInterval   100;

purgeWrite      0;

writeFormat     binary;	//ascii;

writePrecision  12;

writeCompression uncompressed;

timeFormat      general;

timePrecision   6;

runTimeModifiable true;

// ************************************************************************* //

functions
{

///////////////////////////////////////////////////////////////////////////

minmaxdomain_scalar
{
    type            volFieldValue;
    libs            ("libfieldFunctionObjects.so");

    enabled 	    true; 	//true or false
    log             true;	//write to screen
    
    //writeControl    writeTime;
    writeControl    timeStep;
    writeInterval   1;

    writeFields     false;	//write solution to field value - Not needed when only reporting value to screen

    writeLocation   true;	//write location in the output file

    //mode component;

    select      all;

    operation       none;

    fields
    (
        p
	k 
	omega 
	nut 
	epsilon 
	nuTilda
    );
}

minmaxdomain_vector
{
    type            volFieldValue;
    libs            ("libfieldFunctionObjects.so");

    enabled 	    true; 	//true or false
    log             true;	//write to screen
    
    //writeControl    writeTime;
    writeControl    timeStep;
    writeInterval   1;

    writeFields     false;	//write solution to field value - Not needed when only reporting value to screen

    writeLocation   true;	//write location in the output file

    //mode component;

    select          all;

    operation       none;

    fields
    (
        U
    );
}

mindomain_scalar
{
    $minmaxdomain_scalar
    operation       min;
}

mindomain_vector
{
    $minmaxdomain_vector
    operation       minMag;
}

maxdomain_scalar
{
    $minmaxdomain_scalar
    operation       max;
}

maxdomain_vector
{
    $minmaxdomain_vector
    operation       maxMag;
}

///////////////////////////////////////////////////////////////////////////

///////////////////////////////////////////////////////////////////////////

    yplus
    {
    	type yPlus;
    	functionObjectLibs ("libutilityFunctionObjects.so");
    	enabled true;
        writeControl outputTime;
    }

///////////////////////////////////////////////////////////////////////////

///////////////////////////////////////////////////////////////////////////

wallShearStress1
{
    type                wallShearStress;
    functionObjectLibs  ("libutilityFunctionObjects.so");

    enabled true;

    writeControl outputTime;
    //writeControl timeStep;
    //writeInterval 1;

    //log true;
}

///////////////////////////////////////////////////////////////////////////

}

// ************************************************************************* //
